/*--------------------------------*- C++ -*----------------------------------*\
| =========                 |                                                 |
| \\      /  F ield         | OpenFOAM: The Open Source CFD Toolbox           |
|  \\    /   O peration     | Version:  v2012                                 |
|   \\  /    A nd           | Website:  www.openfoam.com                      |
|    \\/     M anipulation  |                                                 |
\*---------------------------------------------------------------------------*/
FoamFile
{
    version     2.0;
    format      ascii;
    class       dictionary;
    location    "system";
    object      controlDict;
}
// * * * * * * * * * * * * * * * * * * * * * * * * * * * * * * * * * * * * * //

#include "simulationParameters"

application     solidFoamAdjustTime;

startFrom       latestTime;

startTime       0;

stopAt          endTime;

endTime         10;

deltaT          1;

writeControl    adjustable;

writeInterval   $writeInterval;

purgeWrite      0;

writeFormat     ascii;

writePrecision  6;

writeCompression off;

timeFormat      general;

timePrecision   6;

runTimeModifiable true;

adjustTimeStep  yes;

maxDeltaT   1;

maxDi       10;

libs
(
    externalComm
);

functions
{
    FMUController
    {
        type            FMUController;
        libs            (FMUController);
        host            $host;
        port            $port;
        

    }
}

// ************************************************************************* //
