/*--------------------------------*- C++ -*----------------------------------*\
| =========                 |                                                 |
| \\      /  F ield         | OpenFOAM: The Open Source CFD Toolbox           |
|  \\    /   O peration     | Version:  v2012                                 |
|   \\  /    A nd           | Website:  www.openfoam.com                      |
|    \\/     M anipulation  |                                                 |
\*---------------------------------------------------------------------------*/
FoamFile
{
    version     2.0;
    format      ascii;
    class       dictionary;
    location    "system";
    object      controlDict;
}
// * * * * * * * * * * * * * * * * * * * * * * * * * * * * * * * * * * * * * //

#include "simulationParameters"

application     interFoam;

startFrom       latestTime;

startTime       0;

stopAt          endTime;

endTime         5;

deltaT          1e-6;

writeControl    adjustable;

writeInterval   0.1;

purgeWrite      0;

writeFormat     ascii;

writePrecision  12;

writeCompression on;

timeFormat      general;

timePrecision   12;

runTimeModifiable yes;

adjustTimeStep  yes;

maxCo           0.2;

maxAlphaCo      0.2;

maxDeltaT       0.002;

checkMeshCourantNo yes;

libs
(
    externalComm
);



functions
{
    FMUSimulator
    {
        type            FMUSimulator;
        libs            (pyFMUSim);
        pyClassName     FuelTruck;
        pyFileName      $pyFileName; // defined in simulationParameters
    }

    forces
    {
        type            forces;
        libs            (forces);
        patches         (".*");
        log             on;
        writeControl    timeStep;
        writeInterval   1;
        CofR            (0 0 0);
    }
}


// ************************************************************************* //
