/*--------------------------------*- C++ -*----------------------------------*\
| =========                 |                                                 |
| \\      /  F ield         | OpenFOAM: The Open Source CFD Toolbox           |
|  \\    /   O peration     | Version:  v2012                                 |
|   \\  /    A nd           | Website:  www.openfoam.com                      |
|    \\/     M anipulation  |                                                 |
\*---------------------------------------------------------------------------*/
FoamFile
{
    version     2.0;
    format      ascii;
    class       dictionary;
    location    "system";
    object      fvSolution;
}
// * * * * * * * * * * * * * * * * * * * * * * * * * * * * * * * * * * * * * //

solvers
{
    "alpha.LH2.*"
    {
        nAlphaCorr      2;
        nAlphaSubCycles 2;
        cAlpha          1;

        MULESCorr       no;

        solver          smoothSolver;
        smoother        symGaussSeidel;
        tolerance       1e-8;
        relTol          0;
        isoFaceTol      1e-6;
        surfCellTol     1e-6;
        nAlphaBounds    3;
        snapTol         1e-12;
        clip            true;
        reconstructionScheme isoAlpha;
    }

    "pcorr.*"
    {
        solver          PCG;
        preconditioner  DIC;
        tolerance       1e-10;
        relTol          0;
        maxIter         1000;
    }

    p_rgh
    {
        solver          GAMG;
        smoother        DIC;
        tolerance       1e-7;
        relTol          0.001;
    }

    p_rghFinal
    {
        $p_rgh;
        relTol          0;
        maxIter         20;
    }


    U
    {
        solver          smoothSolver;
        smoother        GaussSeidel;
        tolerance       1e-06;
        relTol          0;
        nSweeps         1;
    }

    UFinal
    {
        solver          smoothSolver;
        smoother        GaussSeidel;
        tolerance       1e-06;
        relTol          0;
        nSweeps         1;
    }
}

PIMPLE
{
    momentumPredictor yes;
    nCorrectors     4;
    nNonOrthogonalCorrectors 1;
    correctPhi      yes;
    checkMeshCourantNo  yes;
    nOuterCorrectors   1;

    //pRefPoint       (0 0 0);
    pRefCell        0;
    pRefValue       0;
}

relaxationFactors
{
    equations
    {
        "U.*"           1;
    }
}


// ************************************************************************* //
