/*--------------------------------*- C++ -*----------------------------------*\
| =========                 |                                                 |
| \\      /  F ield         | OpenFOAM: The Open Source CFD Toolbox           |
|  \\    /   O peration     | Version:  v2012                                 |
|   \\  /    A nd           | Website:  www.openfoam.com                      |
|    \\/     M anipulation  |                                                 |
\*---------------------------------------------------------------------------*/
FoamFile
{
    version     2.0;
    format      ascii;
    class       volScalarField;
    location    "0";
    object      epsilon;
}
// * * * * * * * * * * * * * * * * * * * * * * * * * * * * * * * * * * * * * //

dimensions      [0 2 -3 0 0 0 0];

internalField   uniform 0.1;

boundaryField
{
    floor
    {
        type            epsilonWallFunction;
        value           uniform 0.01;
    }
    ceiling
    {
        type            epsilonWallFunction;
        value           uniform 0.01;
    }
    fixedWalls
    {
        type            epsilonWallFunction;
        value           uniform 0.01;
    }

    inlet
    {
        type            fixedValue;
        value           uniform 0.1;
    }

    outlet
    {
        type            zeroGradient;
        value           uniform 0;
    }
}


// ************************************************************************* //
