/*--------------------------------*- C++ -*----------------------------------*\
| =========                 |                                                 |
| \\      /  F ield         | OpenFOAM: The Open Source CFD Toolbox           |
|  \\    /   O peration     | Version:  v2012                                 |
|   \\  /    A nd           | Website:  www.openfoam.com                      |
|    \\/     M anipulation  |                                                 |
\*---------------------------------------------------------------------------*/
FoamFile
{
    version     2.0;
    format      ascii;
    class       volScalarField;
    object      p;
}
// * * * * * * * * * * * * * * * * * * * * * * * * * * * * * * * * * * * * * //

dimensions      [1 -1 -2 0 0 0 0];

internalField   uniform 1e5;

boundaryField
{
    floor
    {
        type            calculated;
        value           $internalField;
    }

    ceiling
    {
        type            calculated;
        value           $internalField;
    }

    fixedWalls
    {
        type            calculated;
        value           $internalField;
    }

    inlet
    {
        type            fixedFluxPressure;
        value           uniform 1e5;
    }

    outlet
    {
        type            fixedFluxPressure;
        value           uniform 1e5;
    }
}

// ************************************************************************* //
