/*--------------------------------*- C++ -*----------------------------------*\
| =========                 |                                                 |
| \\      /  F ield         | OpenFOAM: The Open Source CFD Toolbox           |
|  \\    /   O peration     | Version:  v2012                                 |
|   \\  /    A nd           | Website:  www.openfoam.com                      |
|    \\/     M anipulation  |                                                 |
\*---------------------------------------------------------------------------*/
FoamFile
{
    version     2.0;
    format      ascii;
    class       dictionary;
    object      topoSetDict;
}
// * * * * * * * * * * * * * * * * * * * * * * * * * * * * * * * * * * * * * //

actions
(
    {
        name    boundaryFaces;
        type    faceSet;
        action  new;
        source  patchToFace;
        patch   fixedWalls;
    }

    {
        name    outletFaces;
        type    faceSet;
        action  new;
        source  faceToFace;
        set     boundaryFaces;
    }

    {
        name    inletFaces;
        type    faceSet;
        action  new;
        source  faceToFace;
        set     boundaryFaces;
    }

    {
        name    outletFaces;
        type    faceSet;
        action  subset;
        source  boxToFace;
        min     (9 -0.01 0);
        max     (10 0.01 1);
    }

    {
        name    inletFaces;
        type    faceSet;
        action  subset;
        source  boxToFace;
        min     (0 -0.01 0);
        max     (1 0.01 1);
    }
);

// ************************************************************************* //